15
#
Fe    5.4205    7.7925    1.0289
O    4.3546    6.5214    2.4381
O    4.8713    5.1225    4.1058
O    5.5271    6.0949    0.0063
C    4.9619    5.5004    2.8868
C    5.7172    4.5767    1.9366
C    5.9507    4.9148    0.5845
C    6.6576    3.9911    6.7731
H    6.8017    4.1126    5.7435
O    5.7198    14.8041    4.7195
O    5.3013    13.9599    5.5415
O    4.4924    14.9102    1.7206
O    4.2691    16.0085    2.1504
O    -0.2322    3.0099    6.7362
O    -0.2679    4.0441    6.1232
